powerfactory/powerfactory-converter/src/test/resources/ThreeWindingsTransformerSharedVoltageControl.dgs
$$General;ID(a:40);Descr(a:40);Val(a:40)
  1;Version;5.0

$$ChaRef;ID(a:40);loc_name(a:40);fold_id(p)
  2;fline;6
  3;ratfac;13

$$ChaVec;ID(a:40);loc_name(a:40);fold_id(p);scale(p);usage(i);approx(i);vector:SIZEROW(i);vector:0(r);vector:1(r);vector:2(r)
  4;vec_1;;;0;0;3;100;199,98;199,98
  5;vec_2;;;0;0;3;100;33598,7903225806;33598,7903225806

$$ElmNet;ID(a:40);loc_name(a:40);for_name(a:50);fold_id(p);frnom(r);pDiagram(p)
  8;1 aux_1;;;60;

$$ElmLne;ID(a:40);loc_name(a:40);for_name(a:50);fold_id(p);typ_id(p);dline(r);fline(r)
  10;Line_1_2_1;;8;200;52;1

$$ElmLod;ID(a:40);loc_name(a:40);for_name(a:50);fold_id(p);typ_id(p);mode_inp(a:3);slini(r);plini(r);qlini(r);coslini(r);pf_recap(i);scale0(r);i_scale(i);outserv(i)
  20;Load_2M_1;;8;300;PQ;55,9017;50;25;0,894427;0;1;0;0
  21;Load_2L_1;;8;300;PQ;55,9017;50;25;0,894427;0;1;0;0

$$ElmSym;ID(a:40);loc_name(a:40);for_name(a:50);fold_id(p);typ_id(p);cCategory(a);ngnum(i);i_mot(i);pgini(r);qgini(r);cosgini(r);usetp(r);pf_recap(i);q_min(r);q_max(r);outserv(i);av_mode(a);phtech(i)
  30;Gen_1_1;;8;400;Others;1;0;50,47;0;1;1,06;0;0;0;0;constv;1

$$ElmTr3;ID(a:40);loc_name(a:40);for_name(a:50);fold_id(p);nt3nm(i);typ_id(p);outserv(i);n3tap_h(i);n3tap_m(i);n3tap_l(i);ictrlside(i);ntrcn(i);imldc(a:2);tapctrl(p)
  40;T3w_2_2M_2L_1;;8;0;500;0;8;0;0;0;1;V;600
  41;T3w_2_2M_2L_2;;8;0;500;0;8;0;0;0;1;V;600

$$ElmTerm;ID(a:40);loc_name(a:40);for_name(a:50);fold_id(p);typ_id(p);systype(i);iUsage(i);uknom(r);outserv(i)
  50;Bus 1-Slack;;8;;0;0;400;0
  51;Bus 2;;8;;0;0;400;0
  52;Bus 2M;;8;;0;0;110;0
  53;Bus 2L;;8;;0;0;20;0

$$StaCubic;ID(a:40);loc_name(a:40);for_name(a:50);fold_id(p);obj_id(p);obj_bus(i)
  80;SC-Line_1_2_1-1;;50;10;0
  81;SC-Line_1_2_1-2;;51;10;1
  82;SC-Load_2M_1;;52;20;0
  83;SC-Load_2L_1;;53;21;0
  84;SC-Gen_1_1;;50;30;0
  85;SC-T3w_2_2M_2L_1-1;;51;40;0
  86;SC-T3w_2_2M_2L_1-2;;52;40;1
  87;SC-T3w_2_2M_2L_1-3;;53;40;2
  88;SC-T3w_2_2M_2L_2-1;;51;41;0
  89;SC-T3w_2_2M_2L_2-2;;52;41;1
  90;SC-T3w_2_2M_2L_2-3;;53;41;2

$$TypLne;ID(a:40);loc_name(a:40);for_name(a:50);fold_id(p);uline(r);sline(r);InomAir(r);cohl_(i);rline(r);xline(r);rline0(r);xline0(r);Ithr(r);tmax(r);rtemp(r);systp(i);nlnph(i);nneutral(i);frnom(r);mlei(a:2);bline(r);bline0(r)
  200;Line-type;;8;400;7,216878;1;0;0,596307;1,820615;999999;999999;0;80;80;0;3;0;60;Cu;4,159616;0

$$TypLod;ID(a:40);loc_name(a:40);for_name(a:50);fold_id(p);systp(i);phtech(i);aP(r);bP(r);kpu0(r);kpu1(r);kpu(r);aQ(r);bQ(r);kqu0(r);kqu1(r);kqu(r)
  300;Load-type;;8;0;0;1;0;0;1;2;1;0;0;1;2

$$TypSym;ID(a:40);loc_name(a:40);for_name(a:50);fold_id(p);sgn(r);ugn(r);cosn(r);xd(r);xq(r);xdsss(r);rstr(r);xdsat(r);satur(i);nphase(i);nslty(i);x0sy(r);r0sy(r);x2sy(r);r2sy(r);iopt_data(i);xds(r);xqs(r);xl(r);xdss(r);xqss(r);xrlq(r);tds(r);tqs(r);tdss(r);tqss(r)
  400;Gen-type;;8;615;400;1;2;2;1;0;1,2;0;3;2;1;0;1;0;1;0,3;0,3;0,1;1;1;0;1;0;0,05;0,05

$$TypTr3;ID(a:40);loc_name(a:40);for_name(a:50);fold_id(p);strn3_h(r);strn3_m(r);strn3_l(r);utrn3_h(r);utrn3_m(r);utrn3_l(r);uktr3_h(r);uktr3_m(r);uktr3_l(r);pcut3_h(r);pcut3_m(r);pcut3_l(r);uk0hm(r);uk0ml(r);uk0hl(r);ur0hm(r);ur0ml(r);ur0hl(r);tr3cn_h(a:2);tr3cn_m(a:2);tr3cn_l(a:2);nt3ag_h(r);nt3ag_m(r);nt3ag_l(r);curm3(r);pfe(r);du3tp_h(r);ph3tr_h(r);n3tp0_h(i);n3tmn_h(i);n3tmx_h(i);du3tp_m(r);ph3tr_m(r);n3tp0_m(i);n3tmn_m(i);n3tmx_m(i);du3tp_l(r);ph3tr_l(r);n3tp0_l(i);n3tmn_l(i);n3tmx_l(i);itapos(i);i3loc(i)
  500;T3w-type;;27;101;201;301;515;18,36;15,68;3,083255;14,93645;6,724075;17,61356;135,1672;0,603695;0;0;0;0;0;0;YN;YN;YN;-0;-0;-0;0,178613;144,572;1,875;0;0;-5;7;0;0;0;0;0;0;0;0;0;0;1;0

$$ElmTapctrl;ID(a:40);loc_name(a:40);for_name(a:50);fold_id(p);isAutoTap(i);usetp_mx(r);usetp_mn(r);rembar(p)
  600;Tap-Control;;8;1;1.015;0.985;51
